*Heading
** Job name: Job-1 Model name: Model-1
** Generated by: Abaqus/CAE 2016
*Preprint, echo=NO, model=NO, history=NO, contact=NO
**
** PARTS
**
*Part, name=Part-1
*End Part
**  
**
** ASSEMBLY
**
*Assembly, name=Assembly
**  
*Instance, name=Part-1-1, part=Part-1
*Node
      1,          12.,   5.98190451,           0.
      2,          12.,           0.,           0.
      3,   7.07762146,           0.,           0.
      4,   5.46286249,   5.57645655,           0.
      5,           6.,           0.,           0.
      6,   4.22209167,   4.26309061,           0.
      7,           0.,           6.,           0.
      8,           0.,   7.26906061,           0.
      9,           0.,          20.,           0.
     10,   5.93741083,          20.,           0.
     11,          12.,          20.,           0.
     12,          12.,   4.46877337,           0.
     13,          12.,   2.97139716,           0.
     14,          12.,   1.48214912,           0.
     15,   10.7366838,           0.,           0.
     16,   9.46737289,           0.,           0.
     17,    8.2344389,           0.,           0.
     18,   6.99543381,   1.30571985,           0.
     19,    6.6974659,   2.62508488,           0.
     20,   6.18718052,   4.00121641,           0.
** ... 765 like lines cut
*Element, type=C3D20R
 1,  23,  63,  12,   1, 142, 182, 131, 120, 242, 241, 240, 239, 243, 244, 245,
    246, 248, 247, 249, 250
 2,  63,  64,  13,  12, 182, 183, 132, 131, 253, 252, 251, 241, 254, 255, 256,
    244, 247, 257, 258, 249
 3,  64,  65,  14,  13, 183, 184, 133, 132, 261, 260, 259, 252, 262, 263, 264,
    255, 257, 265, 266, 258
 4,  65,  15,   2,  14, 184, 134, 121, 133, 269, 268, 267, 260, 270, 271, 272,
    263, 265, 273, 274, 266
 5,  22,  66,  63,  23, 141, 185, 182, 142, 277, 276, 242, 275, 278, 279, 243,
    280, 282, 281, 247, 248
 6,  66,  67,  64,  63, 185, 186, 183, 182, 284, 283, 253, 276, 285, 286, 254,
    279, 281, 287, 257, 247
 7,  67,  68,  65,  64, 186, 187, 184, 183, 289, 288, 261, 283, 290, 291, 262,
    286, 287, 292, 265, 257
 8,  68,  16,  15,  65, 187, 135, 134, 184, 294, 293, 269, 288, 295, 296, 270,
    291, 292, 297, 273, 265
 9,  21,  69,  66,  22, 140, 188, 185, 141, 300, 299, 277, 298, 301, 302, 278,
    303, 305, 304, 281, 282
10,  69,  70,  67,  66, 188, 189, 186, 185, 307, 306, 284, 299, 308, 309, 285,
    302, 304, 310, 287, 281
** ... 172 like lines cut
*Nset, nset=AssignSection, generate
   1,  785,    1
*Elset, elset=AssignSection, generate
  1,  96,   1
** Section: Section-1
*Solid Section, elset=AssignSection, material=Material-1
,
*End Instance
**  
*Nset, nset=edgeCorner, instance=Part-1-1
  10,  41,  42,  43,  52,  53,  54, 129, 160, 161, 162, 171, 172, 173
*Nset, nset=extremeCorner, instance=Part-1-1
   9,  11, 128, 130
*Nset, nset=midEdge, instance=Part-1-1
 464, 467, 470, 511, 514, 556, 559, 601, 604, 606, 611, 614, 619, 622, 627, 630
 635, 637
*Nset, nset=midMid, instance=Part-1-1
 469, 515, 560, 605, 613, 621, 629
*Nset, nset=xAxisYdirCon, instance=Part-1-1
   2,   3,   5,  15,  16,  17, 121, 122, 124, 134, 135, 136, 268, 271, 273, 274
 293, 296, 297, 316, 319, 320, 339, 342, 343, 344, 349, 351
*Nset, nset=xyPlaneZdir, instance=Part-1-1
   1,   2,   3,   4,   5,   6,   7,   8,   9,  10,  11,  12,  13,  14,  15,  16
  17,  18,  19,  20,  21,  22,  23,  24,  25,  26,  27,  28,  29,  30,  31,  32
  33,  34,  35,  36,  37,  38,  39,  40,  41,  42,  43,  44,  45,  46,  47,  48
  49,  50,  51,  52,  53,  54,  55,  56,  57,  58,  59,  60,  61,  62,  63,  64
  65,  66,  67,  68,  69,  70,  71,  72,  73,  74,  75,  76,  77,  78,  79,  80
  81,  82,  83,  84,  85,  86,  87,  88,  89,  90,  91,  92,  93,  94,  95,  96
  97,  98,  99, 100, 101, 102, 103, 104, 105, 106, 107, 108, 109, 110, 111, 112
 113, 114, 115, 116, 117, 118, 119, 239, 240, 241, 242, 251, 252, 253, 259, 260
 261, 267, 268, 269, 275, 276, 277, 283, 284, 288, 289, 293, 294, 298, 299, 300
 306, 307, 311, 312, 316, 317, 321, 322, 323, 329, 330, 334, 335, 339, 340, 344
 345, 346, 352, 353, 357, 358, 362, 363, 367, 368, 369, 375, 376, 377, 383, 384
 385, 391, 392, 393, 399, 400, 401, 407, 408, 409, 415, 416, 417, 423, 424, 425
 431, 432, 433, 439, 440, 441, 447, 448, 449, 455, 456, 457, 463, 464, 465, 471
 472, 476, 477, 481, 482, 486, 487, 491, 492, 496, 497, 501, 502, 506, 507, 511
 512, 516, 517, 521, 522, 526, 527, 531, 532, 536, 537, 541, 542, 546, 547, 551
 552, 556, 557, 561, 562, 566, 567, 571, 572, 576, 577, 581, 582, 586, 587, 591
 592, 596, 597, 601, 602, 606, 607, 608, 614, 615, 616, 622, 623, 624, 630, 631
 632, 638, 639, 643, 644, 648, 649, 653, 654, 658, 659, 663, 664, 668, 669, 673
 674, 678, 679, 683, 684, 688, 689, 693, 694, 698, 699, 703, 704, 708, 709, 713
 714, 718, 719, 723, 724, 728, 729, 733, 734, 738, 739, 743, 744, 748, 749, 753
 754, 758, 759, 763, 764, 768, 769, 773, 774, 778, 780, 782, 784
*Nset, nset=yAxisXdir, instance=Part-1-1
   7,   8,   9,  33,  34,  35,  36,  37,  38,  39,  40, 126, 127, 128, 152, 153
 154, 155, 156, 157, 158, 159, 392, 395, 397, 398, 399, 404, 406, 407, 412, 414
 415, 420, 422, 423, 428, 430, 431, 436, 438, 439, 444, 446, 447, 452, 454, 455
 460, 462, 463, 468, 470
*End Assembly
** 
** MATERIALS
** 
*Material, name=Material-1
*Elastic
 2.9e+07, 0.3
*Plastic
   60000.,0.
 3.22e+06,1.
** ----------------------------------------------------------------
** 
** STEP: Step-1
** 
*Step, name=Step-1, nlgeom=NO, inc=1000
*Static
0.0001, 1., 1e-50, 0.1
** 
** BOUNDARY CONDITIONS
** 
** Name: BC-1 Type: Displacement/Rotation
*Boundary
xAxisYdirCon, 2, 2
xAxisYdirCon, 4, 4
xAxisYdirCon, 6, 6
** Name: xyPlaneZaxisBC Type: Displacement/Rotation
*Boundary
xyPlaneZdir, 3, 3
xyPlaneZdir, 4, 4
xyPlaneZdir, 5, 5
** Name: yAxisXdirBC Type: Displacement/Rotation
*Boundary
yAxisXdir, 1, 1
yAxisXdir, 5, 5
yAxisXdir, 6, 6
** 
** LOADS
** 
** Name: edgeCornerForce   Type: Concentrated force
*Cload
edgeCorner, 2, -2e+08
** Name: extremeCornerForce   Type: Concentrated force
*Cload
extremeCorner, 2, -1e+08
** Name: midEdgeBC   Type: Concentrated force
*Cload
midEdge, 2, 4e+08
** Name: midMidForce   Type: Concentrated force
*Cload
midMid, 2, 8e+08
** 
** OUTPUT REQUESTS
** 
*Restart, write, frequency=0
** 
** FIELD OUTPUT: F-Output-1
** 
*Output, field, variable=PRESELECT
** 
** HISTORY OUTPUT: H-Output-1
** 
*Output, history, variable=PRESELECT
*End Step
