*Heading
** Job name: Job-1 Model name: Model-1
** Generated by: Abaqus/CAE 2016
*Preprint, echo=NO, model=NO, history=NO, contact=NO
**
** PARTS
**
*Part, name=Part-1
*End Part
**  
**
** ASSEMBLY
**
*Assembly, name=Assembly
**  
*Instance, name=Part-1-1, part=Part-1
*Node
      1,           0.,           6.,          0.5
      2,           0.,           6.,           1.
      3,           0.,          13.,           1.
      4,           0.,          13.,          0.5
      5,    4.2426405,    4.2426405,          0.5
      6,    4.2426405,    4.2426405,           1.
      7,     6.248528,   9.44852829,           1.
      8,     6.248528,   9.44852734,          0.5
      9,           0.,          20.,           1.
     10,           0.,          20.,          0.5
     11,           6.,          20.,           1.
     12,           6.,          20.,          0.5
     13,           0.,          20.,           0.
     14,           0.,          13.,           0.
     15,           6.,          20.,           0.
     16,   6.24852848,   9.44852829,           0.
     17,           0.,           6.,           0.
     18,    4.2426405,    4.2426405,           0.
     19,           6.,           0.,           1.
     20,           9.,           0.,           1.
** ... 80 like lines cut
*Element, type=C3D20R
 1,   5,   6,   7,   8,   1,   2,   3,   4,  37,  36,  35,  34,  38,  39,  40,
     41,  43,  42,  44,  45
 2,   7,  11,  12,   8,   3,   9,  10,   4,  48,  47,  46,  35,  49,  50,  51,
     40,  44,  52,  53,  45
 3,  12,  15,  16,   8,  10,  13,  14,   4,  56,  55,  54,  46,  57,  58,  59,
     51,  53,  60,  61,  45
 4,  16,  18,   5,   8,  14,  17,   1,   4,  63,  62,  34,  54,  64,  65,  41,
     59,  61,  66,  43,  45
 5,   5,  21,  22,   8,   6,  19,  20,   7,  69,  68,  67,  34,  70,  71,  72,
     36,  37,  73,  74,  35
 6,  22,  25,  26,   8,  20,  23,  24,   7,  77,  76,  75,  67,  78,  79,  80,
     72,  74,  81,  82,  35
 7,  26,  28,  12,   8,  24,  27,  11,   7,  84,  83,  46,  75,  85,  86,  48,
     80,  82,  87,  47,  35
 8,  16,  30,  22,   8,  18,  29,  21,   5,  89,  88,  67,  54,  90,  91,  69,
     62,  63,  92,  68,  34
 9,  12,  28,  26,   8,  15,  31,  32,  16,  83,  84,  75,  46,  93,  94,  95,
     55,  56,  96,  97,  54
10,  26,  25,  22,   8,  32,  33,  30,  16,  76,  77,  67,  75,  98,  99,  89,
     95,  97, 100,  88,  54
*Nset, nset=Set-1, generate
   1,  100,    1
*Elset, elset=Set-1, generate
  1,  10,   1
** Section: Section-1
*Solid Section, elset=Set-1, material=Material-1
,
*End Instance
**  
*Nset, nset=Set-1, instance=Part-1-1
 13, 14, 15, 16, 17, 18, 29, 30, 31, 32, 33, 55, 58, 60, 61, 63
 64, 66, 89, 90, 92, 93, 94, 95, 98, 99
*Elset, elset=Set-1, instance=Part-1-1
  3,  4,  8,  9, 10
*Nset, nset=Set-2, instance=Part-1-1
  19,  20,  21,  22,  23,  25,  29,  30,  33,  68,  71,  73,  74,  77,  78,  81
  88,  91,  92,  99, 100
*Elset, elset=Set-2, instance=Part-1-1
  5,  6,  8, 10
*Nset, nset=Set-3, instance=Part-1-1
  1,  2,  3,  4,  9, 10, 13, 14, 17, 38, 39, 40, 41, 49, 50, 51
 57, 58, 59, 64, 65
*Elset, elset=Set-3, instance=Part-1-1, generate
 1,  4,  1
*Elset, elset=_Surf-1_S4, internal, instance=Part-1-1
 2, 7
*Elset, elset=_Surf-1_S3, internal, instance=Part-1-1
 3, 9
*Surface, type=ELEMENT, name=Surf-1
_Surf-1_S4, S4
_Surf-1_S3, S3
*End Assembly
** 
** MATERIALS
** 
*Material, name=Material-1
*Elastic
 2.9e+07, 0.3
*Plastic
   60000.,0.
 3.22e+06,1.
** ----------------------------------------------------------------
** 
** STEP: Step-1
** 
*Step, name=Step-1, nlgeom=NO
*Static
0.0001, 1., 1e-30, 1.
** 
** BOUNDARY CONDITIONS
** 
** Name: BC-1 Type: Displacement/Rotation
*Boundary
Set-1, 3, 3
Set-1, 4, 4
Set-1, 5, 5
** Name: BC-2 Type: Displacement/Rotation
*Boundary
Set-2, 2, 2
Set-2, 4, 4
Set-2, 6, 6
** Name: BC-3 Type: Displacement/Rotation
*Boundary
Set-3, 1, 1
Set-3, 5, 5
Set-3, 6, 6
** 
** LOADS
** 
** Name: Load-1   Type: Pressure
*Dsload
Surf-1, P, -1.2e+09
** 
** OUTPUT REQUESTS
** 
*Restart, write, frequency=0
** 
** FIELD OUTPUT: F-Output-1
** 
*Output, field, variable=PRESELECT
** 
** HISTORY OUTPUT: H-Output-1
** 
*Output, history, variable=PRESELECT
*End Step
